*SPEF "ieee 1481-1999"
*DESIGN "mips_top"
*DATE "12:30:04 Friday May 15, 2026"
*VENDOR "The OpenROAD Project"
*PROGRAM "OpenROAD"
*VERSION "dcf36133a369abc8f3c5e5738cd4d82e4903c0e0"
*DESIGN_FLOW "NAME_SCOPE LOCAL" "PIN_CAP NONE"
*DIVIDER /
*DELIMITER :
*BUS_DELIMITER []
*T_UNIT 1 NS
*C_UNIT 1 PF
*R_UNIT 1 OHM
*L_UNIT 1 HENRY

*NAME_MAP
*3 net
*4 net47
*5 net48
*6 net49
*7 net50
*8 net51
*9 net52
*10 net53
*11 net54
*12 net55
*13 net56
*14 net38
*15 net57
*16 net58
*17 net59
*18 net60
*19 net61
*20 net62
*21 net63
*22 net64
*23 net65
*24 net66
*25 net39
*26 net67
*27 net68
*28 net40
*29 net41
*30 net42
*31 net43
*32 net44
*33 net45
*34 net46
*35 clk
*36 net69
*37 net79
*38 net80
*39 net81
*40 net82
*41 net83
*42 net84
*43 net85
*44 net86
*45 net87
*46 net88
*47 net70
*48 net89
*49 net90
*50 net91
*51 net92
*52 net93
*53 net94
*54 net95
*55 net96
*56 net97
*57 net98
*58 net71
*59 net99
*60 net100
*61 net72
*62 net73
*63 net74
*64 net75
*65 net76
*66 net77
*67 net78
*68 net101
*69 pc_out[10]
*70 pc_out[11]
*71 pc_out[12]
*72 pc_out[13]
*73 pc_out[14]
*74 pc_out[15]
*75 pc_out[16]
*76 pc_out[17]
*77 pc_out[18]
*78 pc_out[19]
*79 net102
*80 pc_out[20]
*81 pc_out[21]
*82 pc_out[22]
*83 pc_out[23]
*84 pc_out[24]
*85 pc_out[25]
*86 pc_out[26]
*87 pc_out[27]
*88 pc_out[28]
*89 pc_out[29]
*90 pc_out[2]
*91 pc_out[30]
*92 pc_out[31]
*93 pc_out[3]
*94 pc_out[4]
*95 pc_out[5]
*96 pc_out[6]
*97 pc_out[7]
*98 pc_out[8]
*99 pc_out[9]
*100 rst
*101 _000_
*102 _001_
*103 _002_
*104 _003_
*105 _004_
*106 _005_
*107 _006_
*108 _007_
*109 _008_
*110 _009_
*111 _010_
*112 _011_
*113 _012_
*114 _013_
*115 _014_
*116 _015_
*117 _016_
*118 _017_
*119 _018_
*120 _019_
*121 _020_
*122 _021_
*123 _022_
*124 _023_
*125 _024_
*126 _025_
*127 _026_
*128 _027_
*129 _028_
*130 _029_
*131 _030_
*132 _031_
*133 _032_
*134 _033_
*135 _034_
*136 _035_
*137 _036_
*138 _037_
*139 _038_
*140 _039_
*141 _040_
*142 _041_
*143 _042_
*144 _043_
*145 _044_
*146 _045_
*147 _046_
*148 _047_
*149 _048_
*150 _049_
*151 _050_
*152 _051_
*153 _052_
*154 _053_
*155 _054_
*156 _055_
*157 _056_
*158 _057_
*159 _058_
*160 _059_
*161 _060_
*162 _061_
*163 _062_
*164 _063_
*165 _064_
*166 _065_
*167 _066_
*168 _067_
*169 _068_
*170 _069_
*171 _070_
*172 _071_
*173 _072_
*174 _073_
*175 _074_
*176 _075_
*177 _076_
*178 _077_
*179 _078_
*180 _079_
*181 _080_
*182 _081_
*183 _082_
*184 _083_
*185 clknet_0_clk
*186 clknet_2_0__leaf_clk
*187 clknet_2_1__leaf_clk
*188 clknet_2_2__leaf_clk
*189 clknet_2_3__leaf_clk
*190 net1
*191 net10
*192 net103
*193 net104
*194 net105
*195 net106
*196 net107
*197 net108
*198 net109
*199 net11
*200 net110
*201 net111
*202 net112
*203 net113
*204 net114
*205 net115
*206 net116
*207 net117
*208 net118
*209 net119
*210 net12
*211 net120
*212 net121
*213 net122
*214 net123
*215 net124
*216 net125
*217 net126
*218 net127
*219 net128
*220 net129
*221 net13
*222 net130
*223 net131
*224 net132
*225 net133
*226 net134
*227 net135
*228 net136
*229 net137
*230 net14
*231 net15
*232 net16
*233 net17
*234 net18
*235 net19
*236 net2
*237 net20
*238 net21
*239 net22
*240 net23
*241 net24
*242 net25
*243 net26
*244 net27
*245 net28
*246 net29
*247 net3
*248 net30
*249 net31
*250 net32
*251 net33
*252 net34
*253 net35
*254 net36
*255 net37
*256 net4
*257 net5
*258 net6
*259 net7
*260 net8
*261 net9
*262 FILLER_0_100
*263 FILLER_0_109
*264 FILLER_0_121
*265 FILLER_0_18
*266 FILLER_0_21
*267 FILLER_0_24
*268 FILLER_0_27
*269 FILLER_0_29
*270 FILLER_0_32
*271 FILLER_0_35
*272 FILLER_0_38
*273 FILLER_0_55
*274 FILLER_0_57
*275 FILLER_0_75
*276 FILLER_0_85
*277 FILLER_0_88
*278 FILLER_0_91
*279 FILLER_0_94
*280 FILLER_0_97
*281 FILLER_10_11
*282 FILLER_10_120
*283 FILLER_10_123
*284 FILLER_10_14
*285 FILLER_10_24
*286 FILLER_10_27
*287 FILLER_10_29
*288 FILLER_10_32
*289 FILLER_10_52
*290 FILLER_10_55
*291 FILLER_10_58
*292 FILLER_10_61
*293 FILLER_10_64
*294 FILLER_10_67
*295 FILLER_10_70
*296 FILLER_10_73
*297 FILLER_10_76
*298 FILLER_10_79
*299 FILLER_10_82
*300 FILLER_10_85
*301 FILLER_10_88
*302 FILLER_10_91
*303 FILLER_10_94
*304 FILLER_11_102
*305 FILLER_11_105
*306 FILLER_11_108
*307 FILLER_11_111
*308 FILLER_11_113
*309 FILLER_11_121
*310 FILLER_11_124
*311 FILLER_11_28
*312 FILLER_11_31
*313 FILLER_11_57
*314 FILLER_11_60
*315 FILLER_11_99
*316 FILLER_12_101
*317 FILLER_12_104
*318 FILLER_12_112
*319 FILLER_12_122
*320 FILLER_12_125
*321 FILLER_12_25
*322 FILLER_12_3
*323 FILLER_12_35
*324 FILLER_12_38
*325 FILLER_12_55
*326 FILLER_12_58
*327 FILLER_12_6
*328 FILLER_12_61
*329 FILLER_12_64
*330 FILLER_12_67
*331 FILLER_12_70
*332 FILLER_12_73
*333 FILLER_12_76
*334 FILLER_12_85
*335 FILLER_12_95
*336 FILLER_12_98
*337 FILLER_13_100
*338 FILLER_13_103
*339 FILLER_13_113
*340 FILLER_13_116
*341 FILLER_13_22
*342 FILLER_13_25
*343 FILLER_13_28
*344 FILLER_13_3
*345 FILLER_13_31
*346 FILLER_13_34
*347 FILLER_13_37
*348 FILLER_13_40
*349 FILLER_13_43
*350 FILLER_13_46
*351 FILLER_13_49
*352 FILLER_13_52
*353 FILLER_13_55
*354 FILLER_13_57
*355 FILLER_13_60
*356 FILLER_13_63
*357 FILLER_13_66
*358 FILLER_13_69
*359 FILLER_13_94
*360 FILLER_13_97
*361 FILLER_14_100
*362 FILLER_14_103
*363 FILLER_14_106
*364 FILLER_14_109
*365 FILLER_14_112
*366 FILLER_14_121
*367 FILLER_14_130
*368 FILLER_14_133
*369 FILLER_14_23
*370 FILLER_14_26
*371 FILLER_14_29
*372 FILLER_14_3
*373 FILLER_14_32
*374 FILLER_14_35
*375 FILLER_14_38
*376 FILLER_14_41
*377 FILLER_14_44
*378 FILLER_14_47
*379 FILLER_14_50
*380 FILLER_14_53
*381 FILLER_14_56
*382 FILLER_14_59
*383 FILLER_14_6
*384 FILLER_14_68
*385 FILLER_14_71
*386 FILLER_14_74
*387 FILLER_14_83
*388 FILLER_14_85
*389 FILLER_14_94
*390 FILLER_14_97
*391 FILLER_15_100
*392 FILLER_15_103
*393 FILLER_15_106
*394 FILLER_15_130
*395 FILLER_15_133
*396 FILLER_15_25
*397 FILLER_15_28
*398 FILLER_15_31
*399 FILLER_15_42
*400 FILLER_15_45
*401 FILLER_15_48
*402 FILLER_15_51
*403 FILLER_15_54
*404 FILLER_15_74
*405 FILLER_15_77
*406 FILLER_15_94
*407 FILLER_15_97
*408 FILLER_16_108
*409 FILLER_16_11
*410 FILLER_16_111
*411 FILLER_16_119
*412 FILLER_16_122
*413 FILLER_16_26
*414 FILLER_16_29
*415 FILLER_16_32
*416 FILLER_16_51
*417 FILLER_16_54
*418 FILLER_16_57
*419 FILLER_16_65
*420 FILLER_16_76
*421 FILLER_16_85
*422 FILLER_17_100
*423 FILLER_17_103
*424 FILLER_17_106
*425 FILLER_17_109
*426 FILLER_17_11
*427 FILLER_17_113
*428 FILLER_17_116
*429 FILLER_17_119
*430 FILLER_17_122
*431 FILLER_17_63
*432 FILLER_17_71
*433 FILLER_17_74
*434 FILLER_17_82
*435 FILLER_17_85
*436 FILLER_17_88
*437 FILLER_17_91
*438 FILLER_17_94
*439 FILLER_17_97
*440 FILLER_18_102
*441 FILLER_18_105
*442 FILLER_18_108
*443 FILLER_18_111
*444 FILLER_18_114
*445 FILLER_18_117
*446 FILLER_18_12
*447 FILLER_18_120
*448 FILLER_18_123
*449 FILLER_18_126
*450 FILLER_18_15
*451 FILLER_18_18
*452 FILLER_18_27
*453 FILLER_18_60
*454 FILLER_18_70
*455 FILLER_18_73
*456 FILLER_18_76
*457 FILLER_18_85
*458 FILLER_18_9
*459 FILLER_18_96
*460 FILLER_18_99
*461 FILLER_19_100
*462 FILLER_19_109
*463 FILLER_19_113
*464 FILLER_19_12
*465 FILLER_19_122
*466 FILLER_19_125
*467 FILLER_19_15
*468 FILLER_19_18
*469 FILLER_19_21
*470 FILLER_19_24
*471 FILLER_19_27
*472 FILLER_19_30
*473 FILLER_19_57
*474 FILLER_19_84
*475 FILLER_19_87
*476 FILLER_19_9
*477 FILLER_19_97
*478 FILLER_1_12
*479 FILLER_1_121
*480 FILLER_1_124
*481 FILLER_1_15
*482 FILLER_1_18
*483 FILLER_1_21
*484 FILLER_1_24
*485 FILLER_1_43
*486 FILLER_1_46
*487 FILLER_1_57
*488 FILLER_1_83
*489 FILLER_1_86
*490 FILLER_1_89
*491 FILLER_1_92
*492 FILLER_20_12
*493 FILLER_20_122
*494 FILLER_20_15
*495 FILLER_20_18
*496 FILLER_20_21
*497 FILLER_20_24
*498 FILLER_20_27
*499 FILLER_20_29
*500 FILLER_20_55
*501 FILLER_20_58
*502 FILLER_20_78
*503 FILLER_20_81
*504 FILLER_20_85
*505 FILLER_21_113
*506 FILLER_21_116
*507 FILLER_21_15
*508 FILLER_21_18
*509 FILLER_21_21
*510 FILLER_21_24
*511 FILLER_21_53
*512 FILLER_21_57
*513 FILLER_21_73
*514 FILLER_21_83
*515 FILLER_21_92
*516 FILLER_21_95
*517 FILLER_22_111
*518 FILLER_22_121
*519 FILLER_22_21
*520 FILLER_22_24
*521 FILLER_22_27
*522 FILLER_22_29
*523 FILLER_22_32
*524 FILLER_22_35
*525 FILLER_22_38
*526 FILLER_22_41
*527 FILLER_22_44
*528 FILLER_22_55
*529 FILLER_22_83
*530 FILLER_22_93
*531 FILLER_22_96
*532 FILLER_2_109
*533 FILLER_2_12
*534 FILLER_2_125
*535 FILLER_2_15
*536 FILLER_2_18
*537 FILLER_2_21
*538 FILLER_2_24
*539 FILLER_2_27
*540 FILLER_2_29
*541 FILLER_2_32
*542 FILLER_2_52
*543 FILLER_2_55
*544 FILLER_2_83
*545 FILLER_2_85
*546 FILLER_2_88
*547 FILLER_2_9
*548 FILLER_2_91
*549 FILLER_3_108
*550 FILLER_3_111
*551 FILLER_3_12
*552 FILLER_3_120
*553 FILLER_3_123
*554 FILLER_3_126
*555 FILLER_3_15
*556 FILLER_3_18
*557 FILLER_3_21
*558 FILLER_3_46
*559 FILLER_3_57
*560 FILLER_3_81
*561 FILLER_3_84
*562 FILLER_3_87
*563 FILLER_3_90
*564 FILLER_4_117
*565 FILLER_4_120
*566 FILLER_4_123
*567 FILLER_4_126
*568 FILLER_4_25
*569 FILLER_4_35
*570 FILLER_4_38
*571 FILLER_4_53
*572 FILLER_4_56
*573 FILLER_4_74
*574 FILLER_4_77
*575 FILLER_4_80
*576 FILLER_4_83
*577 FILLER_4_85
*578 FILLER_4_88
*579 FILLER_4_9
*580 FILLER_4_91
*581 FILLER_4_94
*582 FILLER_5_102
*583 FILLER_5_11
*584 FILLER_5_113
*585 FILLER_5_120
*586 FILLER_5_53
*587 FILLER_5_57
*588 FILLER_5_60
*589 FILLER_5_63
*590 FILLER_5_84
*591 FILLER_5_93
*592 FILLER_5_96
*593 FILLER_5_99
*594 FILLER_6_107
*595 FILLER_6_110
*596 FILLER_6_121
*597 FILLER_6_27
*598 FILLER_6_29
*599 FILLER_6_52
*600 FILLER_6_55
*601 FILLER_6_58
*602 FILLER_6_61
*603 FILLER_6_64
*604 FILLER_6_81
*605 FILLER_6_85
*606 FILLER_7_11
*607 FILLER_7_121
*608 FILLER_7_132
*609 FILLER_7_14
*610 FILLER_7_31
*611 FILLER_7_34
*612 FILLER_7_37
*613 FILLER_7_40
*614 FILLER_7_43
*615 FILLER_7_46
*616 FILLER_7_49
*617 FILLER_7_52
*618 FILLER_7_55
*619 FILLER_7_57
*620 FILLER_7_92
*621 FILLER_8_102
*622 FILLER_8_24
*623 FILLER_8_27
*624 FILLER_8_29
*625 FILLER_8_3
*626 FILLER_8_32
*627 FILLER_8_39
*628 FILLER_8_42
*629 FILLER_8_50
*630 FILLER_8_53
*631 FILLER_8_56
*632 FILLER_8_59
*633 FILLER_8_6
*634 FILLER_8_62
*635 FILLER_8_65
*636 FILLER_8_68
*637 FILLER_8_83
*638 FILLER_8_93
*639 FILLER_8_96
*640 FILLER_8_99
*641 FILLER_9_100
*642 FILLER_9_109
*643 FILLER_9_11
*644 FILLER_9_14
*645 FILLER_9_36
*646 FILLER_9_65
*647 FILLER_9_68
*648 FILLER_9_71
*649 FILLER_9_74
*650 FILLER_9_77
*651 FILLER_9_80
*652 FILLER_9_94
*653 FILLER_9_97
*654 PHY_EDGE_ROW_0_Left_23
*655 PHY_EDGE_ROW_0_Right_0
*656 PHY_EDGE_ROW_10_Left_33
*657 PHY_EDGE_ROW_10_Right_10
*658 PHY_EDGE_ROW_11_Left_34
*659 PHY_EDGE_ROW_11_Right_11
*660 PHY_EDGE_ROW_12_Left_35
*661 PHY_EDGE_ROW_12_Right_12
*662 PHY_EDGE_ROW_13_Left_36
*663 PHY_EDGE_ROW_13_Right_13
*664 PHY_EDGE_ROW_14_Left_37
*665 PHY_EDGE_ROW_14_Right_14
*666 PHY_EDGE_ROW_15_Left_38
*667 PHY_EDGE_ROW_15_Right_15
*668 PHY_EDGE_ROW_16_Left_39
*669 PHY_EDGE_ROW_16_Right_16
*670 PHY_EDGE_ROW_17_Left_40
*671 PHY_EDGE_ROW_17_Right_17
*672 PHY_EDGE_ROW_18_Left_41
*673 PHY_EDGE_ROW_18_Right_18
*674 PHY_EDGE_ROW_19_Left_42
*675 PHY_EDGE_ROW_19_Right_19
*676 PHY_EDGE_ROW_1_Left_24
*677 PHY_EDGE_ROW_1_Right_1
*678 PHY_EDGE_ROW_20_Left_43
*679 PHY_EDGE_ROW_20_Right_20
*680 PHY_EDGE_ROW_21_Left_44
*681 PHY_EDGE_ROW_21_Right_21
*682 PHY_EDGE_ROW_22_Left_45
*683 PHY_EDGE_ROW_22_Right_22
*684 PHY_EDGE_ROW_2_Left_25
*685 PHY_EDGE_ROW_2_Right_2
*686 PHY_EDGE_ROW_3_Left_26
*687 PHY_EDGE_ROW_3_Right_3
*688 PHY_EDGE_ROW_4_Left_27
*689 PHY_EDGE_ROW_4_Right_4
*690 PHY_EDGE_ROW_5_Left_28
*691 PHY_EDGE_ROW_5_Right_5
*692 PHY_EDGE_ROW_6_Left_29
*693 PHY_EDGE_ROW_6_Right_6
*694 PHY_EDGE_ROW_7_Left_30
*695 PHY_EDGE_ROW_7_Right_7
*696 PHY_EDGE_ROW_8_Left_31
*697 PHY_EDGE_ROW_8_Right_8
*698 PHY_EDGE_ROW_9_Left_32
*699 PHY_EDGE_ROW_9_Right_9
*700 TAP_TAPCELL_ROW_0_46
*701 TAP_TAPCELL_ROW_0_47
*702 TAP_TAPCELL_ROW_0_48
*703 TAP_TAPCELL_ROW_0_49
*704 TAP_TAPCELL_ROW_10_68
*705 TAP_TAPCELL_ROW_10_69
*706 TAP_TAPCELL_ROW_11_70
*707 TAP_TAPCELL_ROW_11_71
*708 TAP_TAPCELL_ROW_12_72
*709 TAP_TAPCELL_ROW_12_73
*710 TAP_TAPCELL_ROW_13_74
*711 TAP_TAPCELL_ROW_13_75
*712 TAP_TAPCELL_ROW_14_76
*713 TAP_TAPCELL_ROW_14_77
*714 TAP_TAPCELL_ROW_15_78
*715 TAP_TAPCELL_ROW_15_79
*716 TAP_TAPCELL_ROW_16_80
*717 TAP_TAPCELL_ROW_16_81
*718 TAP_TAPCELL_ROW_17_82
*719 TAP_TAPCELL_ROW_17_83
*720 TAP_TAPCELL_ROW_18_84
*721 TAP_TAPCELL_ROW_18_85
*722 TAP_TAPCELL_ROW_19_86
*723 TAP_TAPCELL_ROW_19_87
*724 TAP_TAPCELL_ROW_1_50
*725 TAP_TAPCELL_ROW_1_51
*726 TAP_TAPCELL_ROW_20_88
*727 TAP_TAPCELL_ROW_20_89
*728 TAP_TAPCELL_ROW_21_90
*729 TAP_TAPCELL_ROW_21_91
*730 TAP_TAPCELL_ROW_22_92
*731 TAP_TAPCELL_ROW_22_93
*732 TAP_TAPCELL_ROW_22_94
*733 TAP_TAPCELL_ROW_22_95
*734 TAP_TAPCELL_ROW_2_52
*735 TAP_TAPCELL_ROW_2_53
*736 TAP_TAPCELL_ROW_3_54
*737 TAP_TAPCELL_ROW_3_55
*738 TAP_TAPCELL_ROW_4_56
*739 TAP_TAPCELL_ROW_4_57
*740 TAP_TAPCELL_ROW_5_58
*741 TAP_TAPCELL_ROW_5_59
*742 TAP_TAPCELL_ROW_6_60
*743 TAP_TAPCELL_ROW_6_61
*744 TAP_TAPCELL_ROW_7_62
*745 TAP_TAPCELL_ROW_7_63
*746 TAP_TAPCELL_ROW_8_64
*747 TAP_TAPCELL_ROW_8_65
*748 TAP_TAPCELL_ROW_9_66
*749 TAP_TAPCELL_ROW_9_67
*750 _084_
*751 _085_
*752 _086_
*753 _087_
*754 _088_
*755 _089_
*756 _090_
*757 _091_
*758 _092_
*759 _093_
*760 _094_
*761 _095_
*762 _096_
*763 _097_
*764 _098_
*765 _099_
*766 _100_
*767 _101_
*768 _102_
*769 _103_
*770 _104_
*771 _105_
*772 _106_
*773 _107_
*774 _108_
*775 _109_
*776 _110_
*777 _111_
*778 _112_
*779 _113_
*780 _114_
*781 _115_
*782 _116_
*783 _117_
*784 _118_
*785 _119_
*786 _120_
*787 _121_
*788 _122_
*789 _123_
*790 _124_
*791 _125_
*792 _126_
*793 _127_
*794 _128_
*795 _129_
*796 _130_
*797 _131_
*798 _132_
*799 _133_
*800 _134_
*801 _135_
*802 _136_
*803 _137_
*804 _138_
*805 _139_
*806 _140_
*807 _141_
*808 _142_
*809 _143_
*810 _144_
*811 _145_
*812 _146_
*813 _147_
*814 _148_
*815 _149_
*816 _150_
*817 _151_
*818 _152_
*819 _153_
*820 _154_
*821 _155_
*822 _156_
*823 _157_
*824 _158_
*825 _159_
*826 _160_
*827 _161_
*828 _162_
*829 _163_
*830 _164_
*831 _165_
*832 _166_
*833 _167_
*834 _168_
*835 _169_
*836 _170_
*837 _171_
*838 _172_
*839 _173_
*840 _174_
*841 _175_
*842 _176_
*843 _177_
*844 _178_
*845 _179_
*846 _180_
*847 _181_
*848 _182_
*849 _183_
*850 _184_
*851 _185_
*852 _186_
*853 _187_
*854 _188_
*855 _189_
*856 _190_
*857 _191_
*858 _192_
*859 _193_
*860 _194_
*861 _195_
*862 _196_
*863 _197_
*864 clkbuf_0_clk
*865 clkbuf_2_0__f_clk
*866 clkbuf_2_1__f_clk
*867 clkbuf_2_2__f_clk
*868 clkbuf_2_3__f_clk
*869 clkload0
*870 clkload1
*871 fanout32
*872 fanout34
*873 fanout35
*874 fanout37
*875 hold103
*876 hold104
*877 hold105
*878 hold106
*879 hold107
*880 hold108
*881 hold109
*882 hold110
*883 hold111
*884 hold112
*885 hold113
*886 hold114
*887 hold115
*888 hold116
*889 hold117
*890 hold118
*891 hold119
*892 hold120
*893 hold121
*894 hold122
*895 hold123
*896 hold124
*897 hold125
*898 hold126
*899 hold127
*900 hold128
*901 hold129
*902 hold130
*903 hold131
*904 hold132
*905 hold133
*906 hold134
*907 hold135
*908 hold136
*909 hold137
*910 input1
*911 load_slew33
*912 load_slew36
*913 mips_top
*914 mips_top_100
*915 mips_top_101
*916 mips_top_102
*917 mips_top_38
*918 mips_top_39
*919 mips_top_40
*920 mips_top_41
*921 mips_top_42
*922 mips_top_43
*923 mips_top_44
*924 mips_top_45
*925 mips_top_46
*926 mips_top_47
*927 mips_top_48
*928 mips_top_49
*929 mips_top_50
*930 mips_top_51
*931 mips_top_52
*932 mips_top_53
*933 mips_top_54
*934 mips_top_55
*935 mips_top_56
*936 mips_top_57
*937 mips_top_58
*938 mips_top_59
*939 mips_top_60
*940 mips_top_61
*941 mips_top_62
*942 mips_top_63
*943 mips_top_64
*944 mips_top_65
*945 mips_top_66
*946 mips_top_67
*947 mips_top_68
*948 mips_top_69
*949 mips_top_70
*950 mips_top_71
*951 mips_top_72
*952 mips_top_73
*953 mips_top_74
*954 mips_top_75
*955 mips_top_76
*956 mips_top_77
*957 mips_top_78
*958 mips_top_79
*959 mips_top_80
*960 mips_top_81
*961 mips_top_82
*962 mips_top_83
*963 mips_top_84
*964 mips_top_85
*965 mips_top_86
*966 mips_top_87
*967 mips_top_88
*968 mips_top_89
*969 mips_top_90
*970 mips_top_91
*971 mips_top_92
*972 mips_top_93
*973 mips_top_94
*974 mips_top_95
*975 mips_top_96
*976 mips_top_97
*977 mips_top_98
*978 mips_top_99
*979 output10
*980 output11
*981 output12
*982 output13
*983 output14
*984 output15
*985 output16
*986 output17
*987 output18
*988 output19
*989 output2
*990 output20
*991 output21
*992 output22
*993 output23
*994 output24
*995 output25
*996 output26
*997 output27
*998 output28
*999 output29
*1000 output3
*1001 output30
*1002 output31
*1003 output4
*1004 output5
*1005 output6
*1006 output7
*1007 output8
*1008 output9

*PORTS
alu_result_out[0] O
alu_result_out[10] O
alu_result_out[11] O
alu_result_out[12] O
alu_result_out[13] O
alu_result_out[14] O
alu_result_out[15] O
alu_result_out[16] O
alu_result_out[17] O
alu_result_out[18] O
alu_result_out[19] O
alu_result_out[1] O
alu_result_out[20] O
alu_result_out[21] O
alu_result_out[22] O
alu_result_out[23] O
alu_result_out[24] O
alu_result_out[25] O
alu_result_out[26] O
alu_result_out[27] O
alu_result_out[28] O
alu_result_out[29] O
alu_result_out[2] O
alu_result_out[30] O
alu_result_out[31] O
alu_result_out[3] O
alu_result_out[4] O
alu_result_out[5] O
alu_result_out[6] O
alu_result_out[7] O
alu_result_out[8] O
alu_result_out[9] O
clk I
instr_out[0] O
instr_out[10] O
instr_out[11] O
instr_out[12] O
instr_out[13] O
instr_out[14] O
instr_out[15] O
instr_out[16] O
instr_out[17] O
instr_out[18] O
instr_out[19] O
instr_out[1] O
instr_out[20] O
instr_out[21] O
instr_out[22] O
instr_out[23] O
instr_out[24] O
instr_out[25] O
instr_out[26] O
instr_out[27] O
instr_out[28] O
instr_out[29] O
instr_out[2] O
instr_out[30] O
instr_out[31] O
instr_out[3] O
instr_out[4] O
instr_out[5] O
instr_out[6] O
instr_out[7] O
instr_out[8] O
instr_out[9] O
pc_out[0] O
pc_out[10] O
pc_out[11] O
pc_out[12] O
pc_out[13] O
pc_out[14] O
pc_out[15] O
pc_out[16] O
pc_out[17] O
pc_out[18] O
pc_out[19] O
pc_out[1] O
pc_out[20] O
pc_out[21] O
pc_out[22] O
pc_out[23] O
pc_out[24] O
pc_out[25] O
pc_out[26] O
pc_out[27] O
pc_out[28] O
pc_out[29] O
pc_out[2] O
pc_out[30] O
pc_out[31] O
pc_out[3] O
pc_out[4] O
pc_out[5] O
pc_out[6] O
pc_out[7] O
pc_out[8] O
pc_out[9] O
rst I

*D_NET *3 0.00188461
*CONN
*P alu_result_out[0] O
*I *913:LO O *D sky130_fd_sc_hd__conb_1
*CAP
1 alu_result_out[0] 0.000440926
2 *913:LO 0.000440926
3 alu_result_out[0] alu_result_out[20] 0.000429307
4 alu_result_out[0] instr_out[28] 0.000192142
5 alu_result_out[0] instr_out[4] 0.000314745
6 alu_result_out[0] instr_out[7] 6.6564e-05
*RES
1 *913:LO alu_result_out[0] 12.9688 
*END

*D_NET *4 0.00142499
*CONN
*P alu_result_out[10] O
*I *926:LO O *D sky130_fd_sc_hd__conb_1
*CAP
1 alu_result_out[10] 0.000417281
2 *926:LO 0.000417281
3 alu_result_out[10] instr_out[1] 2.90019e-05
4 alu_result_out[10] instr_out[2] 0.000561428
*RES
1 *926:LO alu_result_out[10] 8.1232 
*END

*D_NET *5 0.00125127
*CONN
*P alu_result_out[11] O
*I *927:LO O *D sky130_fd_sc_hd__conb_1
*CAP
1 alu_result_out[11] 0.000286318
2 *927:LO 0.000286318
3 alu_result_out[11] alu_result_out[1] 1.79536e-05
4 alu_result_out[11] alu_result_out[25] 0.000332773
5 alu_result_out[11] alu_result_out[29] 0.00032791
*RES
1 *927:LO alu_result_out[11] 7.65533 
*END

*D_NET *6 0.00176119
*CONN
*P alu_result_out[12] O
*I *928:LO O *D sky130_fd_sc_hd__conb_1
*CAP
1 alu_result_out[12] 0.000425516
2 *928:LO 0.000425516
3 alu_result_out[12] alu_result_out[25] 0.000496722
4 alu_result_out[12] instr_out[17] 0.000347218
5 alu_result_out[12] *804:D 4.58691e-05
6 alu_result_out[12] *137:21 2.03539e-05
*RES
1 *928:LO alu_result_out[12] 7.21973 
*END

*D_NET *7 0.00116132
*CONN
*P alu_result_out[13] O
*I *929:LO O *D sky130_fd_sc_hd__conb_1
*CAP
1 alu_result_out[13] 0.000215127
2 *929:LO 0.000215127
3 alu_result_out[13] alu_result_out[21] 0.000349132
4 alu_result_out[13] alu_result_out[26] 0.000381932
5 alu_result_out[13] instr_out[12] 0
*RES
1 *929:LO alu_result_out[13] 6.7536 
*END

*D_NET *8 0.00109631
*CONN
*P alu_result_out[14] O
*I *930:LO O *D sky130_fd_sc_hd__conb_1
*CAP
1 alu_result_out[14] 0.000332366
2 *930:LO 0.000332366
3 alu_result_out[14] alu_result_out[18] 0.000145128
4 alu_result_out[14] alu_result_out[22] 0.000145128
5 alu_result_out[14] alu_result_out[24] 0
6 alu_result_out[14] instr_out[27] 0.000141323
*RES
1 *930:LO alu_result_out[14] 9.70223 
*END

*D_NET *9 0.00177476
*CONN
*P alu_result_out[15] O
*I *931:LO O *D sky130_fd_sc_hd__conb_1
*CAP
1 alu_result_out[15] 0.000598337
2 *931:LO 0.000598337
3 alu_result_out[15] alu_result_out[2] 0.000117465
4 alu_result_out[15] instr_out[23] 0
5 alu_result_out[15] instr_out[31] 0.0004268
6 alu_result_out[15] instr_out[9] 3.38178e-05
*RES
1 *931:LO alu_result_out[15] 10.338 
*END

*D_NET *10 0.00110679
*CONN
*P alu_result_out[16] O
*I *932:LO O *D sky130_fd_sc_hd__conb_1
*CAP
1 alu_result_out[16] 0.000184147
2 *932:LO 0.000184147
3 alu_result_out[16] alu_result_out[1] 0.000355294
4 alu_result_out[16] alu_result_out[29] 3.16997e-05
5 alu_result_out[16] alu_result_out[9] 6.57403e-05
6 alu_result_out[16] instr_out[13] 0.00028576
7 alu_result_out[16] *137:8 0
*RES
1 *932:LO alu_result_out[16] 5.3984 
*END

*D_NET *11 0.00119026
*CONN
*P alu_result_out[17] O
*I *933:LO O *D sky130_fd_sc_hd__conb_1
*CAP
1 alu_result_out[17] 0.000238764
2 *933:LO 0.000238764
3 alu_result_out[17] alu_result_out[9] 0.000352381
4 alu_result_out[17] instr_out[10] 0.000355294
5 alu_result_out[17] instr_out[13] 5.05716e-06
6 alu_result_out[17] instr_out[21] 0
*RES
1 *933:LO alu_result_out[17] 6.7536 
*END

*D_NET *12 0.00123671
*CONN
*P alu_result_out[18] O
*I *934:LO O *D sky130_fd_sc_hd__conb_1
*CAP
1 alu_result_out[18] 0.00033789
2 *934:LO 0.00033789
3 alu_result_out[18] alu_result_out[22] 8.4799e-05
4 alu_result_out[18] alu_result_out[24] 7.22354e-05
5 alu_result_out[18] alu_result_out[28] 0
6 alu_result_out[18] instr_out[29] 0.000258763
7 alu_result_out[14] alu_result_out[18] 0.000145128
*RES
1 *934:LO alu_result_out[18] 8.22183 
*END

*D_NET *13 0.00204366
*CONN
*P alu_result_out[19] O
*I *935:LO O *D sky130_fd_sc_hd__conb_1
*CAP
1 alu_result_out[19] 0.000359785
2 *935:LO 0.000359785
3 alu_result_out[19] alu_result_out[23] 0
4 alu_result_out[19] alu_result_out[2] 0.000621378
5 alu_result_out[19] instr_out[12] 0.000105159
6 alu_result_out[19] instr_out[31] 8.02779e-05
7 alu_result_out[19] instr_out[9] 0.000517275
*RES
1 *935:LO alu_result_out[19] 10.0449 
*END

*D_NET *14 0.00117196
*CONN
*P alu_result_out[1] O
*I *917:LO O *D sky130_fd_sc_hd__conb_1
*CAP
1 alu_result_out[1] 0.000223168
2 *917:LO 0.000223168
3 alu_result_out[1] alu_result_out[29] 0.000352372
4 alu_result_out[1] *137:8 0
5 alu_result_out[11] alu_result_out[1] 1.79536e-05
6 alu_result_out[16] alu_result_out[1] 0.000355294
*RES
1 *917:LO alu_result_out[1] 6.7536 
*END

*D_NET *15 0.00137554
*CONN
*P alu_result_out[20] O
*I *936:LO O *D sky130_fd_sc_hd__conb_1
*CAP
1 alu_result_out[20] 0.000228015
2 *936:LO 0.000228015
3 alu_result_out[20] alu_result_out[24] 0
4 alu_result_out[20] instr_out[4] 0.000145128
5 alu_result_out[20] instr_out[7] 0.000345079
6 alu_result_out[0] alu_result_out[20] 0.000429307
*RES
1 *936:LO alu_result_out[20] 9.70223 
*END

*D_NET *16 0.00117056
*CONN
*P alu_result_out[21] O
*I *937:LO O *D sky130_fd_sc_hd__conb_1
*CAP
1 alu_result_out[21] 0.000185907
2 *937:LO 0.000185907
3 alu_result_out[21] alu_result_out[26] 3.27601e-05
4 alu_result_out[21] alu_result_out[6] 0.000385151
5 alu_result_out[21] alu_result_out[8] 3.16997e-05
6 alu_result_out[21] *886:A 0
7 alu_result_out[13] alu_result_out[21] 0.000349132
*RES
1 *937:LO alu_result_out[21] 5.9084 
*END

*D_NET *17 0.00114998
*CONN
*P alu_result_out[22] O
*I *938:LO O *D sky130_fd_sc_hd__conb_1
*CAP
1 alu_result_out[22] 0.000300792
2 *938:LO 0.000300792
3 alu_result_out[22] alu_result_out[24] 0.000215648
4 alu_result_out[22] instr_out[28] 0
5 alu_result_out[22] instr_out[7] 0.000102818
6 alu_result_out[14] alu_result_out[22] 0.000145128
7 alu_result_out[18] alu_result_out[22] 8.4799e-05
*RES
1 *938:LO alu_result_out[22] 7.13837 
*END

*D_NET *18 0.00115226
*CONN
*P alu_result_out[23] O
*I *939:LO O *D sky130_fd_sc_hd__conb_1
*CAP
1 alu_result_out[23] 0.000221816
2 *939:LO 0.000221816
3 alu_result_out[23] alu_result_out[26] 0.000349132
4 alu_result_out[23] instr_out[12] 0.000359499
5 alu_result_out[19] alu_result_out[23] 0
*RES
1 *939:LO alu_result_out[23] 6.7536 
*END

*D_NET *19 0.00110089
*CONN
*P alu_result_out[24] O
*I *940:LO O *D sky130_fd_sc_hd__conb_1
*CAP
1 alu_result_out[24] 0.00030063
2 *940:LO 0.00030063
3 alu_result_out[24] instr_out[7] 0.000211749
4 alu_result_out[14] alu_result_out[24] 0
5 alu_result_out[18] alu_result_out[24] 7.22354e-05
6 alu_result_out[20] alu_result_out[24] 0
7 alu_result_out[22] alu_result_out[24] 0.000215648
*RES
1 *940:LO alu_result_out[24] 8.33203 
*END

*D_NET *20 0.001448
*CONN
*P alu_result_out[25] O
*I *941:LO O *D sky130_fd_sc_hd__conb_1
*CAP
1 alu_result_out[25] 0.000281768
2 *941:LO 0.000281768
3 alu_result_out[25] alu_result_out[29] 4.37535e-05
4 alu_result_out[25] *137:21 1.12156e-05
5 alu_result_out[11] alu_result_out[25] 0.000332773
6 alu_result_out[12] alu_result_out[25] 0.000496722
*RES
1 *941:LO alu_result_out[25] 5.68973 
*END

*D_NET *21 0.00117964
*CONN
*P alu_result_out[26] O
*I *942:LO O *D sky130_fd_sc_hd__conb_1
*CAP
1 alu_result_out[26] 0.000177558
2 *942:LO 0.000177558
3 alu_result_out[26] instr_out[12] 6.07016e-05
4 alu_result_out[13] alu_result_out[26] 0.000381932
5 alu_result_out[21] alu_result_out[26] 3.27601e-05
6 alu_result_out[23] alu_result_out[26] 0.000349132
*RES
1 *942:LO alu_result_out[26] 5.9084 
*END

*D_NET *22 0.00238991
*CONN
*P alu_result_out[27] O
*I *943:LO O *D sky130_fd_sc_hd__conb_1
*CAP
1 alu_result_out[27] 0.000705196
2 *943:LO 0.000705196
3 alu_result_out[27] alu_result_out[31] 0
4 alu_result_out[27] alu_result_out[5] 8.66285e-05
5 alu_result_out[27] alu_result_out[7] 2.04763e-05
6 alu_result_out[27] instr_out[11] 0.00019494
7 alu_result_out[27] instr_out[20] 0.000371422
8 alu_result_out[27] instr_out[22] 0.000235927
9 alu_result_out[27] instr_out[30] 7.01248e-05
*RES
1 *943:LO alu_result_out[27] 17.1503 
*END

*D_NET *23 0.00127664
*CONN
*P alu_result_out[28] O
*I *944:LO O *D sky130_fd_sc_hd__conb_1
*CAP
1 alu_result_out[28] 0.00026616
2 *944:LO 0.00026616
3 alu_result_out[28] instr_out[24] 0.000387201
4 alu_result_out[28] instr_out[27] 0.000219053
5 alu_result_out[28] instr_out[29] 0.000138068
6 alu_result_out[18] alu_result_out[28] 0
*RES
1 *944:LO alu_result_out[28] 8.23683 
*END

*D_NET *24 0.00118334
*CONN
*P alu_result_out[29] O
*I *945:LO O *D sky130_fd_sc_hd__conb_1
*CAP
1 alu_result_out[29] 0.000213801
2 *945:LO 0.000213801
3 alu_result_out[29] *137:8 0
4 alu_result_out[29] *137:21 0
5 alu_result_out[11] alu_result_out[29] 0.00032791
6 alu_result_out[16] alu_result_out[29] 3.16997e-05
7 alu_result_out[1] alu_result_out[29] 0.000352372
8 alu_result_out[25] alu_result_out[29] 4.37535e-05
*RES
1 *945:LO alu_result_out[29] 5.9084 
*END

*D_NET *25 0.00173401
*CONN
*P alu_result_out[2] O
*I *918:LO O *D sky130_fd_sc_hd__conb_1
*CAP
1 alu_result_out[2] 0.000230414
2 *918:LO 0.000230414
3 alu_result_out[2] instr_out[31] 0.000463977
4 alu_result_out[2] instr_out[9] 7.03597e-05
5 alu_result_out[15] alu_result_out[2] 0.000117465
6 alu_result_out[19] alu_result_out[2] 0.000621378
*RES
1 *918:LO alu_result_out[2] 8.1232 
*END

*D_NET *26 0.00120782
*CONN
*P alu_result_out[30] O
*I *946:LO O *D sky130_fd_sc_hd__conb_1
*CAP
1 alu_result_out[30] 0.000309682
2 *946:LO 0.000309682
3 alu_result_out[30] instr_out[16] 0.000208521
4 alu_result_out[30] pc_out[0] 0.000379938
5 alu_result_out[30] pc_out[4] 0
6 alu_result_out[30] *874:A 0
7 alu_result_out[30] *910:A 0
*RES
1 *946:LO alu_result_out[30] 7.25663 
*END

*D_NET *27 0.00154046
*CONN
*P alu_result_out[31] O
*I *947:LO O *D sky130_fd_sc_hd__conb_1
*CAP
1 alu_result_out[31] 0.000333974
2 *947:LO 0.000333974
3 alu_result_out[31] alu_result_out[4] 6.21133e-05
4 alu_result_out[31] alu_result_out[5] 7.47145e-05
5 alu_result_out[31] alu_result_out[7] 0
6 alu_result_out[31] instr_out[11] 0.000211749
7 alu_result_out[31] instr_out[15] 6.53876e-05
8 alu_result_out[31] instr_out[18] 0.000405519
9 alu_result_out[31] instr_out[20] 5.3023e-05
10 alu_result_out[27] alu_result_out[31] 0
*RES
1 *947:LO alu_result_out[31] 8.2749 
*END

*D_NET *28 0.0011907
*CONN
*P alu_result_out[3] O
*I *919:LO O *D sky130_fd_sc_hd__conb_1
*CAP
1 alu_result_out[3] 0.000426795
2 *919:LO 0.000426795
3 alu_result_out[3] instr_out[16] 0.000286011
4 alu_result_out[3] pc_out[5] 5.11015e-05
*RES
1 *919:LO alu_result_out[3] 11.5992 
*END

*D_NET *29 0.00130425
*CONN
*P alu_result_out[4] O
*I *920:LO O *D sky130_fd_sc_hd__conb_1
*CAP
1 alu_result_out[4] 0.000360046
2 *920:LO 0.000360046
3 alu_result_out[4] instr_out[14] 0.000145128
4 alu_result_out[4] instr_out[18] 0.000366608
5 alu_result_out[4] instr_out[19] 1.03115e-05
6 alu_result_out[4] instr_out[30] 0
7 alu_result_out[4] pc_out[0] 0
8 alu_result_out[31] alu_result_out[4] 6.21133e-05
*RES
1 *920:LO alu_result_out[4] 7.76663 
*END

*D_NET *30 0.00157636
*CONN
*P alu_result_out[5] O
*I *921:LO O *D sky130_fd_sc_hd__conb_1
*CAP
1 alu_result_out[5] 0.000214769
2 *921:LO 0.000214769
3 alu_result_out[5] alu_result_out[7] 0.000320035
4 alu_result_out[5] instr_out[11] 0.000484733
5 alu_result_out[5] instr_out[15] 0.000134323
6 alu_result_out[5] instr_out[20] 4.63927e-05
7 alu_result_out[27] alu_result_out[5] 8.66285e-05
8 alu_result_out[31] alu_result_out[5] 7.47145e-05
*RES
1 *921:LO alu_result_out[5] 9.30357 
*END

*D_NET *31 0.00115885
*CONN
*P alu_result_out[6] O
*I *922:LO O *D sky130_fd_sc_hd__conb_1
*CAP
1 alu_result_out[6] 0.000212281
2 *922:LO 0.000212281
3 alu_result_out[6] alu_result_out[8] 0.000349132
4 alu_result_out[21] alu_result_out[6] 0.000385151
*RES
1 *922:LO alu_result_out[6] 6.7536 
*END

*D_NET *32 0.00181606
*CONN
*P alu_result_out[7] O
*I *923:LO O *D sky130_fd_sc_hd__conb_1
*CAP
1 alu_result_out[7] 0.000467606
2 *923:LO 0.000467606
3 alu_result_out[7] instr_out[11] 0.000234674
4 alu_result_out[7] instr_out[15] 7.87896e-05
5 alu_result_out[7] instr_out[20] 3.79595e-05